Version 4
SHEET 1 1656 1060
WIRE 0 -352 -224 -352
WIRE 160 -352 0 -352
WIRE 416 -352 160 -352
WIRE 512 -352 416 -352
WIRE 608 -352 512 -352
WIRE 416 -336 416 -352
WIRE 512 -320 512 -352
WIRE -224 -304 -224 -352
WIRE 608 -304 608 -352
WIRE 960 -304 832 -304
WIRE 1184 -304 1024 -304
WIRE 1264 -304 1184 -304
WIRE 1408 -304 1344 -304
WIRE 1552 -304 1552 -368
WIRE 1552 -304 1408 -304
WIRE 1552 -288 1552 -304
WIRE 0 -272 0 -352
WIRE 1184 -272 1184 -304
WIRE 1408 -272 1408 -304
WIRE 160 -256 160 -352
WIRE 416 -224 416 -256
WIRE 480 -224 416 -224
WIRE 512 -224 512 -256
WIRE 512 -224 480 -224
WIRE 480 -176 480 -224
WIRE 832 -176 832 -224
WIRE 1184 -176 1184 -208
WIRE 1408 -176 1408 -208
WIRE 1552 -160 1552 -208
WIRE -224 -112 -224 -224
WIRE 0 -112 0 -208
WIRE 0 -112 -224 -112
WIRE 608 -112 608 -224
WIRE 608 -112 480 -112
WIRE -224 -48 -224 -112
WIRE 160 -48 160 -176
WIRE 160 -48 -48 -48
WIRE 912 32 832 32
WIRE 1104 32 976 32
WIRE 1248 32 1184 32
WIRE 1360 32 1360 -16
WIRE 1360 32 1248 32
WIRE 1360 64 1360 32
WIRE 1248 80 1248 32
WIRE -48 112 -48 -48
WIRE -48 112 -112 112
WIRE 608 144 608 -112
WIRE 1248 176 1248 144
WIRE 1360 176 1360 128
WIRE 1360 176 1248 176
WIRE -48 192 -48 112
WIRE 832 192 832 112
WIRE 1360 208 1360 176
WIRE 320 224 160 224
WIRE 480 224 400 224
WIRE 560 224 480 224
WIRE -208 256 -368 256
WIRE 480 256 480 224
WIRE 816 272 736 272
WIRE 944 272 880 272
WIRE -368 288 -368 256
WIRE 160 288 160 224
WIRE 160 288 112 288
WIRE -208 320 -256 320
WIRE 736 320 736 272
WIRE 944 320 944 272
WIRE -400 384 -496 384
WIRE -208 384 -400 384
WIRE 480 384 480 336
WIRE 608 384 608 240
WIRE 608 384 480 384
WIRE -496 400 -496 384
WIRE -400 400 -400 384
WIRE 256 416 112 416
WIRE 352 416 256 416
WIRE 608 416 608 384
WIRE 608 416 432 416
WIRE -208 448 -304 448
WIRE 256 448 256 416
WIRE 608 448 608 416
WIRE 832 464 832 432
WIRE 1056 464 832 464
WIRE -400 496 -400 480
WIRE -304 496 -304 448
WIRE -304 496 -400 496
WIRE 832 496 832 464
WIRE -496 512 -496 464
WIRE -400 528 -400 496
WIRE 256 560 256 512
WIRE 608 560 608 528
WIRE -48 576 -48 512
WIRE 1056 624 1056 464
WIRE -400 656 -400 592
WIRE -256 672 -256 320
WIRE 608 672 -256 672
WIRE 832 672 832 576
WIRE 832 672 800 672
WIRE 608 768 512 768
WIRE 880 768 800 768
WIRE 512 832 512 768
WIRE 880 832 880 768
WIRE 1056 880 1056 704
WIRE 1056 880 928 880
WIRE 1056 912 1056 880
WIRE 880 992 880 928
WIRE 1056 1040 1056 992
FLAG 832 -176 COM
FLAG 1552 -160 COM
FLAG 1360 -16 Vaux
FLAG -112 112 Vaux
FLAG 1552 -368 Vout
FLAG -224 -48 0
FLAG 608 560 0
FLAG 256 560 0
FLAG -400 656 0
FLAG -496 512 0
FLAG -368 288 0
FLAG 512 832 0
FLAG 832 432 Vout
FLAG 880 992 COM
FLAG 1056 1040 COM
FLAG 736 320 0
FLAG 944 320 COM
FLAG 832 192 0
FLAG 1360 208 0
FLAG 1184 -176 COM
FLAG 1408 -176 COM
FLAG -48 576 0
SYMBOL nmos 560 144 R0
SYMATTR InstName M1
SYMATTR Value SPA11N60C3
SYMBOL res 400 -352 R0
SYMATTR InstName R1
SYMATTR Value 25k
SYMBOL cap 496 -320 R0
SYMATTR InstName C1
SYMATTR Value 100n
SYMBOL diode 496 -112 R180
WINDOW 0 24 64 Left 2
WINDOW 3 24 0 Left 2
SYMATTR InstName D1
SYMATTR Value 1SR154-600
SYMBOL ind2 592 -320 R0
SYMATTR InstName L1
SYMATTR Value 1.6m
SYMATTR Type ind
SYMBOL voltage -224 -320 R0
WINDOW 123 0 0 Left 2
WINDOW 39 24 44 Left 2
SYMATTR SpiceLine Rser=55
SYMATTR InstName V2
SYMATTR Value 320
SYMBOL res 464 240 R0
SYMATTR InstName R2
SYMATTR Value 1k
SYMBOL res 416 208 R90
WINDOW 0 0 56 VBottom 2
WINDOW 3 32 56 VTop 2
SYMATTR InstName R3
SYMATTR Value 10
SYMBOL ind2 848 -208 R180
WINDOW 0 36 80 Left 2
WINDOW 3 36 40 Left 2
SYMATTR InstName L2
SYMATTR Value 37.9µ
SYMATTR Type ind
SYMBOL res 1536 -304 R0
SYMATTR InstName R4
SYMATTR Value 330
SYMBOL ind2 848 128 R180
WINDOW 0 36 80 Left 2
WINDOW 3 36 40 Left 2
SYMATTR InstName L4
SYMATTR Value 57.9µ
SYMATTR Type ind
SYMBOL diode 912 48 R270
WINDOW 0 32 32 VTop 2
WINDOW 3 0 32 VBottom 2
SYMATTR InstName D3
SYMATTR Value RF101L4S
SYMBOL res 1088 48 R270
WINDOW 0 32 56 VTop 2
WINDOW 3 0 56 VBottom 2
SYMATTR InstName R5
SYMATTR Value 10
SYMBOL PowerProducts\\LT1243 -48 352 R0
SYMATTR InstName U1
SYMBOL res 592 432 R0
SYMATTR InstName R6
SYMATTR Value 1.88
SYMBOL res 448 400 R90
WINDOW 0 0 56 VBottom 2
WINDOW 3 32 56 VTop 2
SYMATTR InstName R7
SYMATTR Value 1k
SYMBOL cap 240 448 R0
SYMATTR InstName C6
SYMATTR Value 1n
SYMBOL res -416 384 R0
SYMATTR InstName R9
SYMATTR Value 2k
SYMBOL cap -416 528 R0
SYMATTR InstName C7
SYMATTR Value 10n
SYMBOL cap -512 400 R0
SYMATTR InstName C8
SYMATTR Value 100n
SYMBOL zener 1264 144 R180
WINDOW 0 24 64 Left 2
WINDOW 3 24 0 Left 2
SYMATTR InstName D4
SYMATTR Value TFZ18B
SYMATTR Description Diode
SYMATTR Type diode
SYMBOL schottky 960 -288 R270
WINDOW 0 32 32 VTop 2
WINDOW 3 0 32 VBottom 2
SYMATTR InstName D2
SYMATTR Value MBRB2545CT
SYMATTR Description Diode
SYMATTR Type diode
SYMBOL Optos\\PC817C 704 720 M0
SYMATTR InstName U2
SYMBOL Voltage\ Regulators\\TL431 880 880 M0
SYMATTR InstName U3
SYMBOL res 816 480 R0
SYMATTR InstName R10
SYMATTR Value 1k
SYMBOL res 1040 608 R0
SYMATTR InstName R11
SYMATTR Value 30k
SYMBOL res 1040 896 R0
SYMATTR InstName R12
SYMATTR Value 5.6k
SYMBOL cap 880 256 R90
WINDOW 0 0 32 VBottom 2
WINDOW 3 32 32 VTop 2
SYMATTR InstName C12
SYMATTR Value 2.2n
SYMATTR SpiceLine V=2000
SYMBOL res 144 -272 R0
SYMATTR InstName R8
SYMATTR Value 470k
SYMBOL polcap -16 -272 R0
SYMATTR InstName C2
SYMATTR Value 47µ
SYMATTR SpiceLine V=400 Rser=0.7
SYMBOL polcap 1344 64 R0
SYMATTR InstName C3
SYMATTR Value 10µ
SYMATTR SpiceLine V=50 Rser=0.5
SYMBOL polcap 1168 -272 R0
SYMATTR InstName C4
SYMATTR Value 470µ
SYMATTR SpiceLine V=35 Rser=0.1
SYMBOL polcap 1392 -272 R0
SYMATTR InstName C5
SYMATTR Value 1000µ
SYMATTR SpiceLine V=25 Rser=0.1
SYMBOL ind 1248 -288 R270
WINDOW 0 32 56 VTop 2
WINDOW 3 5 56 VBottom 2
SYMATTR InstName L3
SYMATTR Value 10µ
TEXT 624 -376 Left 2 !K1 L1 L2 L4 1
TEXT -16 -472 Left 2 !.tran 100m startup
TEXT -240 80 Left 2 !.ic V(Vaux)=10
TEXT 632 -592 Left 2 ;/* 16V 1A */
