Version 4
SHEET 1 1984 680
WIRE 608 -320 448 -320
WIRE 720 -320 608 -320
WIRE 928 -320 720 -320
WIRE 448 -240 448 -320
WIRE 608 -240 608 -320
WIRE 96 -160 96 -208
WIRE 928 -128 928 -320
WIRE 1168 -128 928 -128
WIRE 1424 -128 1168 -128
WIRE 448 -96 448 -160
WIRE 608 -96 608 -176
WIRE 720 -48 720 -320
WIRE 1168 -48 1168 -128
WIRE 592 -16 512 -16
WIRE 1104 0 1056 0
WIRE -160 16 -160 -80
WIRE -112 16 -160 16
WIRE 96 16 96 -80
WIRE 144 16 96 16
WIRE -160 48 -160 16
WIRE 96 48 96 16
WIRE 592 48 528 48
WIRE 928 48 928 -128
WIRE 928 48 848 48
WIRE 1168 80 1168 48
WIRE 1616 80 1168 80
WIRE -112 96 -112 16
WIRE -112 96 -128 96
WIRE 144 96 144 16
WIRE 144 96 128 96
WIRE 1424 96 1424 -128
WIRE 592 112 544 112
WIRE 1056 112 1056 0
WIRE 1056 112 848 112
WIRE 1168 128 1168 80
WIRE 1360 144 1296 144
WIRE 416 176 384 176
WIRE 592 176 480 176
WIRE 928 176 928 48
WIRE 928 176 848 176
WIRE 1056 176 1056 112
WIRE 1088 176 1056 176
WIRE 1104 176 1088 176
WIRE 1088 224 1088 176
WIRE 1424 224 1424 192
WIRE 1616 224 1424 224
WIRE 592 240 528 240
WIRE 1296 240 1296 144
WIRE 1296 240 848 240
WIRE -160 256 -160 144
WIRE -112 256 -160 256
WIRE 1424 272 1424 224
WIRE -160 288 -160 256
WIRE 96 288 96 144
WIRE 592 304 528 304
WIRE 1296 320 1296 240
WIRE 1344 320 1296 320
WIRE 1360 320 1344 320
WIRE -112 336 -112 256
WIRE -112 336 -128 336
WIRE 208 336 128 336
WIRE 240 336 208 336
WIRE 1088 336 1088 304
WIRE 1168 336 1168 224
WIRE 1168 336 1088 336
WIRE 1344 352 1344 320
WIRE 592 368 528 368
WIRE 1168 368 1168 336
WIRE 208 384 208 336
WIRE 592 432 528 432
WIRE 912 432 848 432
WIRE 1344 448 1344 432
WIRE 1424 448 1424 368
WIRE 1424 448 1344 448
WIRE 1424 480 1424 448
WIRE 96 496 96 384
WIRE 208 496 208 448
WIRE 208 496 96 496
WIRE 592 496 528 496
WIRE -160 560 -160 384
WIRE 96 560 96 496
WIRE 1664 560 1584 560
WIRE 1840 560 1744 560
WIRE 720 576 720 528
FLAG 448 -96 0
FLAG 608 -96 0
FLAG 240 336 DTC
FLAG 96 560 0
FLAG 96 -208 Vref
FLAG 512 -16 DTC
FLAG 528 48 0
FLAG 528 304 0
FLAG 528 432 0
FLAG 384 176 0
FLAG 528 240 Vref
FLAG 528 368 Vref
FLAG 720 576 0
FLAG 528 496 Vref
FLAG 912 432 Vref
FLAG 1616 80 494_OutA
FLAG 1616 224 494_OutB
FLAG 1168 368 0
FLAG 1424 480 0
FLAG 1584 560 494_OutA
FLAG 1840 560 494_OutB
FLAG 544 112 Rt
FLAG -160 -80 Rt
FLAG -160 560 0
SYMBOL voltage 448 -256 R0
WINDOW 123 0 0 Left 2
WINDOW 39 24 44 Left 2
SYMATTR SpiceLine Rser=1
SYMATTR InstName V1
SYMATTR Value 12
SYMBOL polcap 592 -240 R0
SYMATTR InstName C1
SYMATTR Value 470µ
SYMATTR SpiceLine V=35 Rser=0.1
SYMBOL ValVol\\TL494 720 240 R0
SYMATTR InstName U1
SYMBOL res 80 -176 R0
SYMATTR InstName R3
SYMATTR Value 32k
SYMBOL cap 192 384 R0
SYMATTR InstName C2
SYMATTR Value 10n
SYMBOL cap 480 160 R90
WINDOW 0 0 32 VBottom 2
WINDOW 3 32 32 VTop 2
SYMATTR InstName C3
SYMATTR Value 2.2n
SYMBOL npn 1104 -48 R0
SYMATTR InstName Q1
SYMATTR Value BD139
SYMBOL pnp 1104 224 M180
SYMATTR InstName Q2
SYMATTR Value BD140
SYMBOL npn 1360 96 R0
SYMATTR InstName Q3
SYMATTR Value BD139
SYMBOL pnp 1360 368 M180
SYMATTR InstName Q4
SYMATTR Value BD140
SYMBOL res 1072 208 R0
SYMATTR InstName R5
SYMATTR Value 330
SYMBOL res 1328 336 R0
SYMATTR InstName R6
SYMATTR Value 330
SYMBOL res 1760 544 R90
WINDOW 0 0 56 VBottom 2
WINDOW 3 32 56 VTop 2
SYMATTR InstName R7
SYMATTR Value 1k
SYMBOL EXTRA\\Misc\\pot 96 96 M0
SYMATTR InstName U2
SYMATTR Value2 T=0
SYMBOL EXTRA\\Misc\\pot 96 336 M0
SYMATTR InstName U3
SYMATTR Value R=50k
SYMATTR Value2 T=0.6
SYMBOL EXTRA\\Misc\\pot -160 96 M0
SYMATTR InstName U4
SYMATTR Value2 T=1
SYMBOL EXTRA\\Misc\\pot -160 336 M0
SYMATTR InstName U5
SYMATTR Value R=50k
SYMATTR Value2 T=1
TEXT 1520 152 Left 2 ;/* Output hard signals */
TEXT 872 400 Left 2 !.ic V(Vref)=0
TEXT 64 600 Left 2 !.tran 20m startup
