Version 4
SHEET 1 2600 680
WIRE 80 -656 80 -688
WIRE -384 -608 -384 -656
WIRE 1136 -544 1136 -592
WIRE 80 -512 80 -576
WIRE -384 -464 -384 -528
WIRE 736 -448 736 -496
WIRE 736 -448 496 -448
WIRE 304 -432 304 -560
WIRE -32 -400 -80 -400
WIRE 80 -400 80 -448
WIRE 80 -400 48 -400
WIRE 176 -400 80 -400
WIRE 1136 -400 1136 -464
WIRE 1264 -400 1136 -400
WIRE 736 -384 736 -448
WIRE 1328 -352 1328 -400
WIRE 1472 -352 1328 -352
WIRE 1568 -352 1472 -352
WIRE 1744 -352 1648 -352
WIRE 1856 -352 1744 -352
WIRE 1984 -352 1984 -416
WIRE 1984 -352 1856 -352
WIRE 176 -336 96 -336
WIRE 496 -336 496 -448
WIRE 496 -336 432 -336
WIRE 672 -336 640 -336
WIRE 1136 -320 1136 -400
WIRE 1264 -320 1136 -320
WIRE 1328 -320 1328 -352
WIRE 1984 -320 1984 -352
WIRE 1136 -304 1136 -320
WIRE 64 -272 -80 -272
WIRE 176 -272 144 -272
WIRE 544 -272 432 -272
WIRE -304 -256 -304 -320
WIRE 1472 -256 1472 -352
WIRE 1744 -256 1744 -352
WIRE 1856 -256 1856 -352
WIRE -448 -224 -448 -272
WIRE 736 -224 736 -288
WIRE 784 -224 736 -224
WIRE 928 -224 864 -224
WIRE 1008 -224 928 -224
WIRE 1088 -224 1008 -224
WIRE -80 -208 -80 -272
WIRE 0 -208 -80 -208
WIRE 176 -208 64 -208
WIRE 496 -208 496 -336
WIRE 496 -208 432 -208
WIRE 544 -208 544 -272
WIRE 640 -208 640 -336
WIRE 640 -208 544 -208
WIRE 1008 -208 1008 -224
WIRE -80 -192 -80 -208
WIRE 736 -192 736 -224
WIRE 928 -192 928 -224
WIRE 1984 -192 1984 -240
WIRE 2096 -192 1984 -192
WIRE 2256 -192 2176 -192
WIRE 2304 -192 2256 -192
WIRE 1984 -176 1984 -192
WIRE -304 -144 -304 -176
WIRE 176 -144 -304 -144
WIRE 544 -144 544 -208
WIRE 544 -144 432 -144
WIRE 640 -144 640 -208
WIRE 656 -144 640 -144
WIRE 672 -144 656 -144
WIRE 2256 -144 2256 -192
WIRE 656 -112 656 -144
WIRE 1008 -112 1008 -128
WIRE 1136 -112 1136 -208
WIRE 1136 -112 1008 -112
WIRE -448 -96 -448 -144
WIRE -304 -96 -304 -144
WIRE 176 -80 -48 -80
WIRE 928 -64 928 -128
WIRE 1136 -64 1136 -112
WIRE 1472 -64 1472 -192
WIRE 1744 -64 1744 -192
WIRE 1856 -64 1856 -192
WIRE 1984 -64 1984 -96
WIRE -176 -48 -176 -80
WIRE 2256 -48 2256 -80
WIRE 176 -16 112 -16
WIRE 656 -16 656 -32
WIRE 736 -16 736 -96
WIRE 736 -16 656 -16
WIRE 736 16 736 -16
WIRE -448 32 -448 -32
WIRE -304 32 -304 -16
WIRE 176 48 96 48
WIRE 512 48 432 48
WIRE -176 64 -176 32
WIRE -48 64 -48 -80
WIRE -48 64 -176 64
WIRE -176 80 -176 64
WIRE 176 112 144 112
WIRE 96 176 96 48
WIRE 96 176 32 176
WIRE -176 208 -176 160
WIRE 304 224 304 144
WIRE -64 304 -96 304
WIRE 32 304 32 176
WIRE 32 304 16 304
WIRE 64 304 32 304
WIRE 192 304 144 304
FLAG 304 224 0
FLAG 304 -560 Vcc
FLAG -384 -656 Vcc
FLAG -384 -464 0
FLAG 512 48 Vref
FLAG 144 112 0
FLAG -80 -192 0
FLAG 96 -336 FB
FLAG 736 16 0
FLAG 736 -496 Vcc
FLAG 928 -64 0
FLAG 1136 -64 0
FLAG 1136 -592 Vcc
FLAG 1744 -64 0
FLAG 1856 -64 0
FLAG 1984 -64 0
FLAG 2304 -192 CS
FLAG 2256 -48 0
FLAG 1984 -416 Vout
FLAG -304 -320 Vout
FLAG -304 32 0
FLAG -176 -80 Vref
FLAG -176 208 0
FLAG 112 -16 CS
FLAG -96 304 Vref
FLAG 192 304 0
FLAG 1472 -64 0
FLAG -448 -272 FB
FLAG -448 32 0
FLAG 80 -688 Vref
FLAG -80 -400 0
SYMBOL ValVol\\TL494 304 -144 R0
SYMATTR InstName U1
SYMBOL voltage -384 -624 R0
WINDOW 123 0 0 Left 2
WINDOW 39 0 0 Left 2
SYMATTR InstName V1
SYMATTR Value 15
SYMBOL res 160 -288 R90
WINDOW 0 0 56 VBottom 2
WINDOW 3 32 56 VTop 2
SYMATTR InstName R1
SYMATTR Value 10k
SYMBOL cap 64 -224 R90
WINDOW 0 0 32 VBottom 2
WINDOW 3 32 32 VTop 2
SYMATTR InstName C1
SYMATTR Value 1n
SYMBOL npn 672 -384 R0
SYMATTR InstName Q1
SYMATTR Value BC547C
SYMBOL pnp 672 -96 M180
SYMATTR InstName Q2
SYMATTR Value BC557C
SYMBOL res 640 -128 R0
SYMATTR InstName R2
SYMATTR Value 1k
SYMBOL res 880 -240 R90
WINDOW 0 0 56 VBottom 2
WINDOW 3 32 56 VTop 2
SYMATTR InstName R4
SYMATTR Value 10
SYMBOL res 992 -224 R0
SYMATTR InstName R5
SYMATTR Value 1k
SYMBOL nmos 1088 -304 R0
SYMATTR InstName M1
SYMATTR Value IRF1010N
SYMBOL zener 944 -128 R180
WINDOW 0 24 64 Left 2
WINDOW 3 24 0 Left 2
SYMATTR InstName D2
SYMATTR Value TDZ18B
SYMATTR Description Diode
SYMATTR Type diode
SYMBOL ind 1120 -560 R0
SYMATTR InstName L1
SYMATTR Value 20µ
SYMBOL schottky 1264 -304 R270
WINDOW 0 32 32 VTop 2
WINDOW 3 0 32 VBottom 2
SYMATTR InstName D1
SYMATTR Value MBRB2545CT
SYMATTR Description Diode
SYMATTR Type diode
SYMBOL polcap 1728 -256 R0
SYMATTR InstName C2
SYMATTR Value 1000µ
SYMATTR SpiceLine V=25 Rser=0.1
SYMBOL cap 1840 -256 R0
SYMATTR InstName C3
SYMATTR Value 100n
SYMBOL res 1968 -336 R0
SYMATTR InstName Rload
SYMATTR Value 47
SYMBOL res 1968 -192 R0
SYMATTR InstName R6
SYMATTR Value 0.05
SYMBOL cap 2240 -144 R0
SYMATTR InstName C4
SYMATTR Value 1n
SYMBOL res 2192 -208 R90
WINDOW 0 0 56 VBottom 2
WINDOW 3 32 56 VTop 2
SYMATTR InstName R7
SYMATTR Value 1k
SYMBOL res -320 -272 R0
SYMATTR InstName R8
SYMATTR Value 11k
SYMBOL res -320 -112 R0
SYMATTR InstName R9
SYMATTR Value 1k
SYMBOL res -192 -64 R0
SYMATTR InstName R10
SYMATTR Value 10k
SYMBOL res -192 64 R0
SYMATTR InstName R11
SYMATTR Value 10k
SYMBOL res -80 320 R270
WINDOW 0 32 56 VTop 2
WINDOW 3 0 56 VBottom 2
SYMATTR InstName R14
SYMATTR Value 200k
SYMBOL res 48 320 R270
WINDOW 0 32 56 VTop 2
WINDOW 3 0 56 VBottom 2
SYMATTR InstName R15
SYMATTR Value 1k
SYMBOL polcap 1456 -256 R0
SYMATTR InstName C5
SYMATTR Value 1000µ
SYMATTR SpiceLine V=25 Rser=0.1
SYMBOL ind 1552 -336 R270
WINDOW 0 32 56 VTop 2
WINDOW 3 5 56 VBottom 2
SYMATTR InstName L2
SYMATTR Value 10µ
SYMBOL res -464 -240 R0
SYMATTR InstName R12
SYMATTR Value 470k
SYMBOL cap -464 -96 R0
SYMATTR InstName C6
SYMATTR Value 10n
SYMBOL polcap 64 -512 R0
SYMATTR InstName C7
SYMATTR Value 10µ
SYMBOL res 64 -416 R90
WINDOW 0 0 56 VBottom 2
WINDOW 3 32 56 VTop 2
SYMATTR InstName R3
SYMATTR Value 10k
SYMBOL res 64 -672 R0
SYMATTR InstName R13
SYMATTR Value 5.1k
SYMBOL schottky 1264 -384 R270
WINDOW 0 32 32 VTop 2
WINDOW 3 0 32 VBottom 2
SYMATTR InstName D3
SYMATTR Value MBRB2545CT
SYMATTR Description Diode
SYMATTR Type diode
TEXT 464 8 Left 2 !.ic V(Vref)=0
TEXT -334 398 Left 2 !.tran 100m startup
