Version 4
SHEET 1 2600 680
WIRE 304 -1040 304 -1072
WIRE 304 -944 304 -960
WIRE 400 -944 304 -944
WIRE 304 -896 304 -944
WIRE 304 -784 304 -832
WIRE 80 -656 80 -688
WIRE -384 -608 -384 -656
WIRE 80 -512 80 -576
WIRE 1136 -512 1136 -576
WIRE -384 -464 -384 -528
WIRE 736 -448 736 -496
WIRE 736 -448 496 -448
WIRE 304 -432 304 -560
WIRE -32 -400 -80 -400
WIRE 80 -400 80 -448
WIRE 80 -400 48 -400
WIRE 176 -400 80 -400
WIRE 736 -384 736 -448
WIRE 1136 -352 1136 -432
WIRE 1216 -352 1136 -352
WIRE 1360 -352 1280 -352
WIRE 1488 -352 1360 -352
WIRE 1664 -352 1552 -352
WIRE 1728 -352 1664 -352
WIRE 1872 -352 1808 -352
WIRE 2032 -352 2032 -416
WIRE 2032 -352 1872 -352
WIRE 176 -336 96 -336
WIRE 496 -336 496 -448
WIRE 496 -336 432 -336
WIRE 672 -336 640 -336
WIRE 2032 -320 2032 -352
WIRE -304 -288 -304 -320
WIRE -272 -288 -304 -288
WIRE -304 -272 -304 -288
WIRE 64 -272 -80 -272
WIRE 176 -272 144 -272
WIRE 544 -272 432 -272
WIRE 1136 -272 1136 -352
WIRE 1360 -272 1360 -352
WIRE -560 -256 -560 -288
WIRE -560 -256 -608 -256
WIRE -512 -256 -560 -256
WIRE 1664 -256 1664 -352
WIRE 1872 -256 1872 -352
WIRE -608 -224 -608 -256
WIRE -512 -224 -512 -256
WIRE -272 -224 -272 -288
WIRE 736 -224 736 -288
WIRE 784 -224 736 -224
WIRE 928 -224 864 -224
WIRE 1008 -224 928 -224
WIRE 1056 -224 1008 -224
WIRE -80 -208 -80 -272
WIRE 0 -208 -80 -208
WIRE 176 -208 64 -208
WIRE 496 -208 496 -336
WIRE 496 -208 432 -208
WIRE 544 -208 544 -272
WIRE 640 -208 640 -336
WIRE 640 -208 544 -208
WIRE 1008 -208 1008 -224
WIRE -80 -192 -80 -208
WIRE 736 -192 736 -224
WIRE 928 -192 928 -224
WIRE 2032 -192 2032 -240
WIRE 2112 -192 2032 -192
WIRE 2272 -192 2192 -192
WIRE 2336 -192 2272 -192
WIRE 2032 -176 2032 -192
WIRE 2272 -160 2272 -192
WIRE -304 -144 -304 -176
WIRE -256 -144 -304 -144
WIRE -96 -144 -176 -144
WIRE 176 -144 -96 -144
WIRE 544 -144 544 -208
WIRE 544 -144 432 -144
WIRE 640 -144 640 -208
WIRE 656 -144 640 -144
WIRE 672 -144 656 -144
WIRE -96 -112 -96 -144
WIRE 656 -112 656 -144
WIRE 1008 -112 1008 -128
WIRE 1136 -112 1136 -176
WIRE 1136 -112 1008 -112
WIRE -304 -96 -304 -144
WIRE -608 -80 -608 -144
WIRE -512 -80 -512 -144
WIRE 176 -80 -32 -80
WIRE 928 -64 928 -128
WIRE 1136 -64 1136 -112
WIRE 1360 -64 1360 -192
WIRE 1664 -64 1664 -192
WIRE 1872 -64 1872 -192
WIRE 2032 -64 2032 -96
WIRE 2272 -64 2272 -96
WIRE -176 -48 -176 -80
WIRE -96 -16 -96 -48
WIRE 176 -16 112 -16
WIRE 656 -16 656 -32
WIRE 736 -16 736 -96
WIRE 736 -16 656 -16
WIRE 736 16 736 -16
WIRE -304 32 -304 -16
WIRE 176 48 96 48
WIRE 512 48 432 48
WIRE -176 64 -176 32
WIRE -32 64 -32 -80
WIRE -32 64 -176 64
WIRE -176 80 -176 64
WIRE 176 112 144 112
WIRE -32 128 -32 64
WIRE 32 176 32 128
WIRE 96 176 96 48
WIRE 96 176 32 176
WIRE -176 208 -176 160
WIRE 304 224 304 144
WIRE -64 240 -128 240
WIRE -128 272 -128 240
WIRE -128 272 -160 272
WIRE -112 272 -128 272
WIRE 32 272 32 176
WIRE 32 272 -16 272
WIRE 80 272 32 272
WIRE 224 272 160 272
FLAG 304 224 0
FLAG 304 -560 Vout
FLAG -384 -656 Vcc
FLAG -384 -464 0
FLAG 512 48 Vref
FLAG 144 112 0
FLAG -80 -192 0
FLAG 96 -336 FB
FLAG 736 16 0
FLAG 736 -496 Vout
FLAG 928 -64 0
FLAG 1136 -64 0
FLAG 1136 -576 Vcc
FLAG 1872 -64 0
FLAG 2032 -64 0
FLAG 2336 -192 CS
FLAG 2032 -416 Vout
FLAG -304 -320 Vout
FLAG -304 32 0
FLAG -176 -80 Vref
FLAG -176 208 0
FLAG 112 -16 CS
FLAG -160 272 Vref
FLAG 224 272 0
FLAG 1664 -64 0
FLAG 80 -688 Vref
FLAG -80 -400 0
FLAG 32 128 -IN2
FLAG -560 -288 FB
FLAG -32 128 -IN1
FLAG -608 -80 -IN1
FLAG -512 -80 -IN2
FLAG -96 -16 0
FLAG 2272 -64 0
FLAG 1360 -64 0
FLAG 304 -1072 Vcc
FLAG 304 -784 0
FLAG 400 -944 Vout
SYMBOL ValVol\\TL494 304 -144 R0
SYMATTR InstName U1
SYMBOL voltage -384 -624 R0
WINDOW 123 0 0 Left 2
WINDOW 39 0 0 Left 2
SYMATTR InstName V1
SYMATTR Value 44
SYMBOL res 160 -288 R90
WINDOW 0 0 56 VBottom 2
WINDOW 3 32 56 VTop 2
SYMATTR InstName R1
SYMATTR Value 10k
SYMBOL cap 64 -224 R90
WINDOW 0 0 32 VBottom 2
WINDOW 3 32 32 VTop 2
SYMATTR InstName C1
SYMATTR Value 1n
SYMBOL npn 672 -384 R0
SYMATTR InstName Q1
SYMATTR Value BD139
SYMBOL pnp 672 -96 M180
SYMATTR InstName Q2
SYMATTR Value BD140
SYMBOL res 640 -128 R0
SYMATTR InstName R2
SYMATTR Value 1k
SYMBOL res 880 -240 R90
WINDOW 0 0 56 VBottom 2
WINDOW 3 32 56 VTop 2
SYMATTR InstName R4
SYMATTR Value 10
SYMBOL res 992 -224 R0
SYMATTR InstName R5
SYMATTR Value 1k
SYMBOL zener 944 -128 R180
WINDOW 0 24 64 Left 2
WINDOW 3 24 0 Left 2
SYMATTR InstName D2
SYMATTR Value TDZ18B
SYMATTR Description Diode
SYMATTR Type diode
SYMBOL polcap 1856 -256 R0
SYMATTR InstName C2
SYMATTR Value 1000µ
SYMATTR SpiceLine V=25 Rser=0.3
SYMBOL res 2016 -336 R0
SYMATTR InstName Rload
SYMATTR Value 24
SYMBOL res 2016 -192 R0
SYMATTR InstName R6
SYMATTR Value 0.1
SYMBOL res -320 -112 R0
SYMATTR InstName R9
SYMATTR Value 2k
SYMBOL res -192 -64 R0
SYMATTR InstName R10
SYMATTR Value 10k
SYMBOL res -192 64 R0
SYMATTR InstName R11
SYMATTR Value 10k
SYMBOL polcap 1648 -256 R0
SYMATTR InstName C5
SYMATTR Value 1000µ
SYMATTR SpiceLine V=25 Rser=0.3
SYMBOL res 64 -416 R90
WINDOW 0 0 56 VBottom 2
WINDOW 3 32 56 VTop 2
SYMATTR InstName R3
SYMATTR Value 10k
SYMBOL res 64 -672 R0
SYMATTR InstName R13
SYMATTR Value 5.1k
SYMBOL schottky 1488 -336 R270
WINDOW 0 32 32 VTop 2
WINDOW 3 0 32 VBottom 2
SYMATTR InstName D3
SYMATTR Value MBR20100CT
SYMATTR Description Diode
SYMATTR Type diode
SYMBOL EXTRA\\Misc\\pot -64 272 R90
SYMATTR InstName U2
SYMATTR Value R=500k
SYMATTR Value2 T=0.5
SYMBOL EXTRA\\Misc\\pot -304 -224 M0
SYMATTR InstName U3
SYMATTR Value R=8.3k
SYMATTR Value2 T=1
SYMBOL res -624 -240 R0
SYMATTR InstName R8
SYMATTR Value 47k
SYMBOL res -528 -240 R0
SYMATTR InstName R12
SYMATTR Value 47k
SYMBOL res -160 -160 R90
WINDOW 0 0 56 VBottom 2
WINDOW 3 32 56 VTop 2
SYMATTR InstName R7
SYMATTR Value 10k
SYMBOL cap -112 -112 R0
SYMATTR InstName C4
SYMATTR Value 10n
SYMBOL res 176 256 R90
WINDOW 0 0 56 VBottom 2
WINDOW 3 32 56 VTop 2
SYMATTR InstName R14
SYMATTR Value 1k
SYMBOL res 2208 -208 R90
WINDOW 0 0 56 VBottom 2
WINDOW 3 32 56 VTop 2
SYMATTR InstName R15
SYMATTR Value 10k
SYMBOL cap 2256 -160 R0
SYMATTR InstName C6
SYMATTR Value 10n
SYMBOL ind2 1120 -528 R0
SYMATTR InstName L1
SYMATTR Value 100µ
SYMATTR Type ind
SYMBOL cap 64 -512 R0
SYMATTR InstName C7
SYMATTR Value 4.7µ
SYMBOL ind 1712 -336 R270
WINDOW 0 32 56 VTop 2
WINDOW 3 5 56 VBottom 2
SYMATTR InstName L3
SYMATTR Value 10µ
SYMBOL cap 1280 -368 R90
WINDOW 0 0 32 VBottom 2
WINDOW 3 32 32 VTop 2
SYMATTR InstName C3
SYMATTR Value 1µ
SYMBOL ind2 1344 -288 R0
SYMATTR InstName L2
SYMATTR Value 100µ
SYMATTR Type ind
SYMBOL res 288 -1056 R0
SYMATTR InstName R16
SYMATTR Value 1k
SYMBOL polcap 288 -896 R0
SYMATTR InstName C8
SYMATTR Value 470µ
SYMATTR SpiceLine V=35 Rser=0.3
SYMBOL EXTRA\\IRF\\NMOSFET\\irf3710z 1104 -224 R0
SYMATTR InstName U5
TEXT 464 8 Left 2 !.ic V(Vref)=0
TEXT -584 232 Left 2 !.tran 100m startup
TEXT -264 -544 Left 2 ;/* replace with 100n during simulation */
TEXT 496 -888 Left 2 !.ic V(Vout)=10
