Version 4
SHEET 1 8072 2404
WIRE 1264 -2944 1264 -2992
WIRE 1552 -2944 1264 -2944
WIRE 2224 -2944 1552 -2944
WIRE 2384 -2944 2224 -2944
WIRE 2704 -2928 2624 -2928
WIRE 2832 -2928 2768 -2928
WIRE 2864 -2928 2832 -2928
WIRE 2976 -2928 2944 -2928
WIRE 3104 -2928 3104 -2976
WIRE 3104 -2928 2976 -2928
WIRE 2224 -2912 2224 -2944
WIRE 1264 -2896 1264 -2944
WIRE 1552 -2896 1552 -2944
WIRE 2384 -2896 2384 -2944
WIRE 2624 -2896 2624 -2928
WIRE 2832 -2880 2832 -2928
WIRE 2976 -2880 2976 -2928
WIRE 3104 -2880 3104 -2928
WIRE 3728 -2880 3728 -2992
WIRE 3728 -2880 3552 -2880
WIRE 3552 -2832 3552 -2880
WIRE 1552 -2784 1552 -2816
WIRE 1552 -2784 1456 -2784
WIRE 1648 -2784 1552 -2784
WIRE 2224 -2784 2224 -2832
WIRE 1264 -2768 1264 -2832
WIRE 2624 -2768 2624 -2816
WIRE 2832 -2768 2832 -2816
WIRE 2976 -2768 2976 -2816
WIRE 3104 -2768 3104 -2800
WIRE 1456 -2736 1456 -2784
WIRE 3728 -2704 3728 -2880
WIRE 2224 -2688 2224 -2720
WIRE 2384 -2688 2384 -2816
WIRE 2384 -2688 2224 -2688
WIRE 2720 -2672 2624 -2672
WIRE 2864 -2672 2784 -2672
WIRE 2928 -2672 2864 -2672
WIRE 3072 -2672 3008 -2672
WIRE 3120 -2672 3072 -2672
WIRE 3552 -2656 3552 -2752
WIRE 3664 -2656 3552 -2656
WIRE 3072 -2640 3072 -2672
WIRE 1456 -2624 1456 -2672
WIRE 2624 -2624 2624 -2672
WIRE 2864 -2608 2864 -2672
WIRE 4016 -2608 4016 -2656
WIRE 1984 -2560 1984 -2608
WIRE 1984 -2560 1744 -2560
WIRE 1552 -2544 1552 -2784
WIRE 3072 -2528 3072 -2576
WIRE 3552 -2528 3552 -2656
WIRE 1424 -2512 1360 -2512
WIRE 1984 -2496 1984 -2560
WIRE 3728 -2480 3728 -2608
WIRE 3728 -2480 3616 -2480
WIRE 3776 -2480 3728 -2480
WIRE 4016 -2480 4016 -2528
WIRE 4016 -2480 3840 -2480
WIRE 1424 -2448 1360 -2448
WIRE 1744 -2448 1744 -2560
WIRE 1744 -2448 1680 -2448
WIRE 1920 -2448 1888 -2448
WIRE 2624 -2448 2624 -2544
WIRE 2864 -2448 2864 -2528
WIRE 3072 -2432 3072 -2464
WIRE 4016 -2432 4016 -2480
WIRE 2384 -2416 2384 -2688
WIRE 3552 -2400 3552 -2432
WIRE 3616 -2400 3552 -2400
WIRE 3728 -2400 3728 -2480
WIRE 3728 -2400 3696 -2400
WIRE 1328 -2384 1216 -2384
WIRE 1424 -2384 1408 -2384
WIRE 1792 -2384 1680 -2384
WIRE 944 -2368 944 -2432
WIRE 1984 -2336 1984 -2400
WIRE 2032 -2336 1984 -2336
WIRE 2176 -2336 2112 -2336
WIRE 2256 -2336 2176 -2336
WIRE 2336 -2336 2256 -2336
WIRE 3552 -2336 3552 -2400
WIRE 1216 -2320 1216 -2384
WIRE 1232 -2320 1216 -2320
WIRE 1424 -2320 1296 -2320
WIRE 1744 -2320 1744 -2448
WIRE 1744 -2320 1680 -2320
WIRE 1792 -2320 1792 -2384
WIRE 1888 -2320 1888 -2448
WIRE 1888 -2320 1792 -2320
WIRE 2256 -2320 2256 -2336
WIRE 1984 -2304 1984 -2336
WIRE 2176 -2304 2176 -2336
WIRE 4016 -2304 4016 -2352
WIRE 1216 -2288 1216 -2320
WIRE 2960 -2288 2960 -2320
WIRE 3296 -2272 3296 -2384
WIRE 944 -2256 944 -2288
WIRE 1424 -2256 944 -2256
WIRE 1792 -2256 1792 -2320
WIRE 1792 -2256 1680 -2256
WIRE 1888 -2256 1888 -2320
WIRE 1904 -2256 1888 -2256
WIRE 1920 -2256 1904 -2256
WIRE 4224 -2240 4192 -2240
WIRE 4320 -2240 4320 -2304
WIRE 4320 -2240 4288 -2240
WIRE 4528 -2240 4320 -2240
WIRE 4768 -2240 4528 -2240
WIRE 5024 -2240 4768 -2240
WIRE 1904 -2224 1904 -2256
WIRE 2256 -2224 2256 -2240
WIRE 2384 -2224 2384 -2320
WIRE 2384 -2224 2256 -2224
WIRE 2448 -2224 2384 -2224
WIRE 2608 -2224 2528 -2224
WIRE 2656 -2224 2608 -2224
WIRE 3552 -2224 3552 -2256
WIRE 3664 -2224 3552 -2224
WIRE 944 -2208 944 -2256
WIRE 2176 -2208 2176 -2240
WIRE 3664 -2208 3664 -2224
WIRE 1120 -2192 1104 -2192
WIRE 1232 -2192 1200 -2192
WIRE 1424 -2192 1232 -2192
WIRE 2384 -2192 2384 -2224
WIRE 3552 -2192 3552 -2224
WIRE 2608 -2176 2608 -2224
WIRE 1040 -2160 1040 -2192
WIRE 1232 -2160 1232 -2192
WIRE 2960 -2160 2960 -2208
WIRE 4320 -2160 4320 -2240
WIRE 4768 -2160 4768 -2240
WIRE 1424 -2128 1376 -2128
WIRE 1904 -2128 1904 -2144
WIRE 1984 -2128 1984 -2208
WIRE 1984 -2128 1904 -2128
WIRE 4192 -2128 4128 -2128
WIRE 3296 -2112 3296 -2192
WIRE 4704 -2112 4656 -2112
WIRE 1984 -2096 1984 -2128
WIRE 3664 -2096 3664 -2128
WIRE 944 -2080 944 -2128
WIRE 1424 -2064 1344 -2064
WIRE 1776 -2064 1680 -2064
WIRE 2384 -2064 2384 -2112
WIRE 2608 -2064 2608 -2112
WIRE 2960 -2064 2960 -2096
WIRE 3040 -2064 2960 -2064
WIRE 3152 -2064 3104 -2064
WIRE 4192 -2064 4128 -2064
WIRE 4528 -2064 4528 -2240
WIRE 4528 -2064 4448 -2064
WIRE 1040 -2048 1040 -2080
WIRE 1104 -2048 1104 -2192
WIRE 1104 -2048 1040 -2048
WIRE 1232 -2048 1232 -2080
WIRE 2960 -2048 2960 -2064
WIRE 5984 -2048 5936 -2048
WIRE 6144 -2048 6048 -2048
WIRE 6224 -2048 6144 -2048
WIRE 6272 -2048 6224 -2048
WIRE 6304 -2048 6272 -2048
WIRE 6368 -2048 6304 -2048
WIRE 6480 -2048 6448 -2048
WIRE 6560 -2048 6480 -2048
WIRE 6624 -2048 6560 -2048
WIRE 1040 -2032 1040 -2048
WIRE 4768 -2032 4768 -2064
WIRE 5216 -2032 4768 -2032
WIRE 5024 -2016 5024 -2240
WIRE 1424 -2000 1392 -2000
WIRE 4000 -2000 3936 -2000
WIRE 4192 -2000 4080 -2000
WIRE 4656 -2000 4656 -2112
WIRE 4656 -2000 4448 -2000
WIRE 5760 -2000 5696 -2000
WIRE 5856 -2000 5760 -2000
WIRE 5936 -2000 5936 -2048
WIRE 5936 -2000 5856 -2000
WIRE 6304 -2000 6304 -2048
WIRE 4768 -1984 4768 -2032
WIRE 6224 -1984 6224 -2048
WIRE 3296 -1968 3296 -2032
WIRE 3376 -1968 3296 -1968
WIRE 3504 -1968 3440 -1968
WIRE 4960 -1968 4896 -1968
WIRE 6480 -1968 6480 -2048
WIRE 6560 -1968 6560 -2048
WIRE 5696 -1952 5696 -2000
WIRE 5760 -1952 5760 -2000
WIRE 5856 -1952 5856 -2000
WIRE 5936 -1952 5936 -2000
WIRE 5984 -1952 5936 -1952
WIRE 6096 -1952 6048 -1952
WIRE 6272 -1952 6272 -2048
WIRE 7088 -1952 7088 -1984
WIRE 1344 -1936 1344 -2064
WIRE 1344 -1936 1280 -1936
WIRE 1392 -1936 1392 -2000
WIRE 1552 -1936 1552 -1968
WIRE 1552 -1936 1392 -1936
WIRE 3936 -1936 3936 -2000
WIRE 4096 -1936 3936 -1936
WIRE 4192 -1936 4160 -1936
WIRE 4528 -1936 4528 -2064
WIRE 4528 -1936 4448 -1936
WIRE 4656 -1936 4656 -2000
WIRE 4688 -1936 4656 -1936
WIRE 4704 -1936 4688 -1936
WIRE 2960 -1920 2960 -1968
WIRE 3296 -1920 3296 -1968
WIRE 3936 -1920 3936 -1936
WIRE 1040 -1904 1040 -1952
WIRE 1552 -1904 1552 -1936
WIRE 4688 -1888 4688 -1936
WIRE 5024 -1888 5024 -1920
WIRE 5216 -1888 5024 -1888
WIRE 4192 -1872 4080 -1872
WIRE 4896 -1872 4896 -1968
WIRE 4896 -1872 4448 -1872
WIRE 5984 -1872 5936 -1872
WIRE 6096 -1872 6096 -1952
WIRE 6096 -1872 6048 -1872
WIRE 7088 -1856 7088 -1888
WIRE 7168 -1856 7088 -1856
WIRE 7248 -1856 7248 -1920
WIRE 1184 -1840 1152 -1840
WIRE 1280 -1840 1280 -1936
WIRE 1280 -1840 1264 -1840
WIRE 1312 -1840 1280 -1840
WIRE 1440 -1840 1392 -1840
WIRE 5024 -1840 5024 -1888
WIRE 7088 -1840 7088 -1856
WIRE 5696 -1824 5696 -1872
WIRE 5760 -1824 5760 -1872
WIRE 5760 -1824 5696 -1824
WIRE 5856 -1824 5856 -1872
WIRE 5856 -1824 5760 -1824
WIRE 5936 -1824 5936 -1872
WIRE 5936 -1824 5856 -1824
WIRE 6096 -1824 6096 -1872
WIRE 6224 -1824 6224 -1920
WIRE 6304 -1824 6304 -1904
WIRE 6480 -1824 6480 -1888
WIRE 6560 -1824 6560 -1904
WIRE 4192 -1808 3984 -1808
WIRE 3760 -1792 3760 -1840
WIRE 4896 -1792 4896 -1872
WIRE 4944 -1792 4896 -1792
WIRE 4960 -1792 4944 -1792
WIRE 1984 -1776 1984 -1808
WIRE 2176 -1776 1984 -1776
WIRE 2288 -1776 2176 -1776
WIRE 2400 -1776 2288 -1776
WIRE 4688 -1776 4688 -1808
WIRE 4768 -1776 4768 -1888
WIRE 4768 -1776 4688 -1776
WIRE 5936 -1776 5936 -1824
WIRE 5984 -1776 5936 -1776
WIRE 6144 -1776 6144 -2048
WIRE 6144 -1776 6048 -1776
WIRE 7168 -1776 7168 -1856
WIRE 7200 -1776 7168 -1776
WIRE 4944 -1760 4944 -1792
WIRE 3296 -1744 3296 -1840
WIRE 4192 -1744 4112 -1744
WIRE 4768 -1744 4768 -1776
WIRE 7088 -1728 7088 -1760
WIRE 7248 -1728 7248 -1760
WIRE 1984 -1712 1984 -1776
WIRE 2176 -1712 2176 -1776
WIRE 2288 -1712 2288 -1776
WIRE 2400 -1712 2400 -1776
WIRE 4192 -1680 4112 -1680
WIRE 4512 -1680 4448 -1680
WIRE 3760 -1664 3760 -1712
WIRE 3840 -1664 3760 -1664
WIRE 3984 -1664 3984 -1808
WIRE 3984 -1664 3920 -1664
WIRE 4944 -1664 4944 -1680
WIRE 5024 -1664 5024 -1744
WIRE 5024 -1664 4944 -1664
WIRE 3312 -1648 3264 -1648
WIRE 3424 -1648 3392 -1648
WIRE 3472 -1648 3424 -1648
WIRE 3584 -1648 3552 -1648
WIRE 3648 -1648 3584 -1648
WIRE 5024 -1632 5024 -1664
WIRE 1200 -1616 1120 -1616
WIRE 1360 -1616 1360 -1664
WIRE 1360 -1616 1280 -1616
WIRE 3424 -1616 3424 -1648
WIRE 3584 -1616 3584 -1648
WIRE 3760 -1616 3760 -1664
WIRE 4192 -1616 4112 -1616
WIRE 3984 -1600 3984 -1664
WIRE 2928 -1584 2928 -1616
WIRE 2928 -1584 2816 -1584
WIRE 3040 -1584 2928 -1584
WIRE 2816 -1568 2816 -1584
WIRE 3040 -1568 3040 -1584
WIRE 1360 -1552 1360 -1616
WIRE 1984 -1552 1984 -1632
WIRE 2176 -1552 2176 -1648
WIRE 2288 -1552 2288 -1648
WIRE 2400 -1552 2400 -1648
WIRE 1120 -1504 1120 -1616
WIRE 1184 -1504 1120 -1504
WIRE 1296 -1504 1264 -1504
WIRE 3424 -1504 3424 -1552
WIRE 3584 -1504 3584 -1552
WIRE 4320 -1504 4320 -1584
WIRE 3760 -1488 3760 -1536
WIRE 3984 -1472 3984 -1520
WIRE 2816 -1456 2816 -1488
WIRE 2896 -1456 2816 -1456
WIRE 3040 -1456 3040 -1488
WIRE 3120 -1456 3040 -1456
WIRE 1360 -1424 1360 -1456
WIRE 1488 -1424 1360 -1424
WIRE 1632 -1424 1552 -1424
WIRE 2816 -1424 2816 -1456
WIRE 3040 -1424 3040 -1456
WIRE 1120 -1392 1120 -1504
WIRE 1360 -1392 1360 -1424
WIRE 1088 -1360 1024 -1360
WIRE 2816 -1312 2816 -1344
WIRE 3040 -1312 3040 -1344
WIRE 1120 -1264 1120 -1328
WIRE 1360 -1264 1360 -1312
WIRE 5840 -1040 5776 -1040
WIRE 6032 -1040 5904 -1040
WIRE 6448 -1040 6032 -1040
WIRE 6640 -1040 6448 -1040
WIRE 6784 -1040 6640 -1040
WIRE 1136 -1008 1136 -1056
WIRE 1280 -1008 1136 -1008
WIRE 1536 -1008 1280 -1008
WIRE 1136 -976 1136 -1008
WIRE 1536 -976 1536 -1008
WIRE 5568 -976 5408 -976
WIRE 5776 -976 5776 -1040
WIRE 5776 -976 5648 -976
WIRE 6448 -976 6448 -1040
WIRE 6640 -976 6640 -1040
WIRE 7056 -928 7056 -1024
WIRE 7136 -928 7056 -928
WIRE 7216 -928 7136 -928
WIRE 7312 -928 7216 -928
WIRE 1280 -912 1280 -1008
WIRE 7472 -912 7472 -1072
WIRE 1536 -880 1536 -896
WIRE 1616 -880 1536 -880
WIRE 1760 -880 1680 -880
WIRE 7056 -880 7056 -928
WIRE 7136 -880 7136 -928
WIRE 7216 -880 7216 -928
WIRE 7312 -880 7312 -928
WIRE 1136 -864 1136 -896
WIRE 1216 -864 1136 -864
WIRE 5776 -864 5776 -976
WIRE 5840 -864 5776 -864
WIRE 5952 -864 5904 -864
WIRE 1536 -848 1536 -880
WIRE 1136 -832 1136 -864
WIRE 5408 -832 5408 -976
WIRE 992 -800 928 -800
WIRE 1024 -800 992 -800
WIRE 1280 -800 1280 -816
WIRE 1280 -800 1104 -800
WIRE 1360 -800 1280 -800
WIRE 1472 -800 1440 -800
WIRE 6448 -768 6448 -896
WIRE 6448 -768 6352 -768
WIRE 6640 -768 6640 -896
WIRE 6720 -768 6640 -768
WIRE 7056 -768 7056 -816
WIRE 7136 -768 7136 -816
WIRE 7216 -768 7216 -816
WIRE 7312 -768 7312 -816
WIRE 1280 -752 1280 -800
WIRE 6448 -736 6448 -768
WIRE 6448 -736 6416 -736
WIRE 992 -720 992 -800
WIRE 1104 -720 992 -720
WIRE 3216 -720 2928 -720
WIRE 3504 -720 3504 -800
WIRE 3504 -720 3216 -720
WIRE 3792 -720 3504 -720
WIRE 4080 -720 3792 -720
WIRE 6448 -720 6448 -736
WIRE 7472 -704 7472 -832
WIRE 5840 -688 5776 -688
WIRE 5952 -688 5952 -864
WIRE 5952 -688 5904 -688
WIRE 6176 -688 5952 -688
WIRE 6416 -672 6416 -736
WIRE 1136 -656 1136 -688
WIRE 1280 -656 1280 -672
WIRE 1536 -656 1536 -752
WIRE 2928 -624 2928 -720
WIRE 3216 -624 3216 -720
WIRE 3792 -624 3792 -720
WIRE 4080 -624 4080 -720
WIRE 2160 -592 2112 -592
WIRE 2272 -592 2224 -592
WIRE 2336 -592 2272 -592
WIRE 4736 -592 4672 -592
WIRE 4784 -592 4736 -592
WIRE 4896 -592 4848 -592
WIRE 5408 -592 5408 -752
WIRE 5776 -592 5776 -688
WIRE 5776 -592 5408 -592
WIRE 6448 -592 6448 -624
WIRE 6640 -592 6640 -768
WIRE 2336 -576 2336 -592
WIRE 2400 -576 2368 -576
WIRE 2512 -576 2480 -576
WIRE 2560 -576 2512 -576
WIRE 2656 -576 2624 -576
WIRE 2784 -576 2656 -576
WIRE 2848 -576 2784 -576
WIRE 3136 -576 3088 -576
WIRE 3920 -576 3872 -576
WIRE 4224 -576 4160 -576
WIRE 4352 -576 4224 -576
WIRE 4384 -576 4352 -576
WIRE 4496 -576 4448 -576
WIRE 4528 -576 4496 -576
WIRE 4640 -576 4608 -576
WIRE 4672 -576 4672 -592
WIRE 2656 -544 2656 -576
WIRE 4352 -544 4352 -576
WIRE 2512 -496 2512 -576
WIRE 2592 -496 2512 -496
WIRE 2784 -496 2784 -576
WIRE 3088 -496 3088 -576
WIRE 3088 -496 2784 -496
WIRE 3920 -496 3920 -576
WIRE 4224 -496 4224 -576
WIRE 4224 -496 3920 -496
WIRE 4496 -496 4496 -576
WIRE 4496 -496 4416 -496
WIRE 5776 -496 5776 -592
WIRE 5840 -496 5776 -496
WIRE 6032 -496 6032 -1040
WIRE 6032 -496 5904 -496
WIRE 2032 -480 1952 -480
WIRE 2368 -480 2368 -576
WIRE 2368 -480 2240 -480
WIRE 4640 -480 4640 -576
WIRE 4768 -480 4640 -480
WIRE 5056 -480 4976 -480
WIRE 2512 -464 2512 -496
WIRE 4496 -464 4496 -496
WIRE 2032 -448 1952 -448
WIRE 2272 -448 2272 -592
WIRE 2272 -448 2240 -448
WIRE 2784 -448 2784 -496
WIRE 4224 -448 4224 -496
WIRE 4736 -448 4736 -592
WIRE 4768 -448 4736 -448
WIRE 5056 -448 4976 -448
WIRE 2272 -432 2272 -448
WIRE 4736 -432 4736 -448
WIRE 6176 -432 6176 -688
WIRE 6448 -432 6448 -512
WIRE 6640 -432 6640 -512
WIRE 7088 -432 7008 -432
WIRE 7248 -432 7248 -480
WIRE 7248 -432 7168 -432
WIRE 2032 -416 1984 -416
WIRE 5024 -416 4976 -416
WIRE 1984 -400 1984 -416
WIRE 5024 -400 5024 -416
WIRE 7248 -368 7248 -432
WIRE 2272 -352 2272 -368
WIRE 2272 -352 2240 -352
WIRE 2336 -352 2336 -512
WIRE 2336 -352 2272 -352
WIRE 2512 -352 2512 -384
WIRE 2512 -352 2336 -352
WIRE 2656 -352 2656 -448
WIRE 2656 -352 2512 -352
WIRE 2784 -352 2784 -368
WIRE 2784 -352 2656 -352
WIRE 2928 -352 2928 -528
WIRE 2928 -352 2784 -352
WIRE 3216 -352 3216 -528
WIRE 3216 -352 2928 -352
WIRE 3472 -352 3216 -352
WIRE 3792 -352 3792 -528
WIRE 3792 -352 3552 -352
WIRE 4080 -352 4080 -528
WIRE 4080 -352 3792 -352
WIRE 4224 -352 4224 -368
WIRE 4224 -352 4080 -352
WIRE 4352 -352 4352 -448
WIRE 4352 -352 4224 -352
WIRE 4496 -352 4496 -384
WIRE 4496 -352 4352 -352
WIRE 4672 -352 4672 -512
WIRE 4672 -352 4496 -352
WIRE 4736 -352 4736 -368
WIRE 4736 -352 4672 -352
WIRE 4768 -352 4736 -352
WIRE 2032 -320 1984 -320
WIRE 2272 -320 2240 -320
WIRE 2288 -320 2272 -320
WIRE 4736 -320 4720 -320
WIRE 4768 -320 4736 -320
WIRE 5024 -320 4976 -320
WIRE 7008 -320 7008 -432
WIRE 7072 -320 7008 -320
WIRE 7184 -320 7152 -320
WIRE 2272 -304 2272 -320
WIRE 4736 -304 4736 -320
WIRE 2928 -240 2928 -352
WIRE 3216 -240 3216 -352
WIRE 3792 -240 3792 -352
WIRE 4080 -240 4080 -352
WIRE 7248 -240 7248 -272
WIRE 7376 -240 7248 -240
WIRE 7520 -240 7440 -240
WIRE 2272 -224 2272 -240
WIRE 2272 -224 2240 -224
WIRE 2304 -224 2272 -224
WIRE 4736 -224 4736 -240
WIRE 4736 -224 4704 -224
WIRE 4768 -224 4736 -224
WIRE 7008 -208 7008 -320
WIRE 7248 -208 7248 -240
WIRE 2032 -192 1984 -192
WIRE 2400 -192 2240 -192
WIRE 2512 -192 2480 -192
WIRE 2560 -192 2512 -192
WIRE 2656 -192 2624 -192
WIRE 2784 -192 2656 -192
WIRE 2848 -192 2784 -192
WIRE 3136 -192 3088 -192
WIRE 3920 -192 3872 -192
WIRE 4224 -192 4160 -192
WIRE 4352 -192 4224 -192
WIRE 4384 -192 4352 -192
WIRE 4496 -192 4448 -192
WIRE 4528 -192 4496 -192
WIRE 4768 -192 4608 -192
WIRE 5024 -192 4976 -192
WIRE 1984 -176 1984 -192
WIRE 5024 -176 5024 -192
WIRE 6976 -176 6912 -176
WIRE 2656 -160 2656 -192
WIRE 4352 -160 4352 -192
WIRE 2512 -112 2512 -192
WIRE 2592 -112 2512 -112
WIRE 2784 -112 2784 -192
WIRE 3088 -112 3088 -192
WIRE 3088 -112 2784 -112
WIRE 3920 -112 3920 -192
WIRE 4224 -112 4224 -192
WIRE 4224 -112 3920 -112
WIRE 4496 -112 4496 -192
WIRE 4496 -112 4416 -112
WIRE 2512 -80 2512 -112
WIRE 4496 -80 4496 -112
WIRE 7008 -80 7008 -144
WIRE 7248 -80 7248 -128
WIRE 2784 -64 2784 -112
WIRE 4224 -64 4224 -112
WIRE 2512 32 2512 0
WIRE 2656 32 2656 -64
WIRE 2656 32 2512 32
WIRE 2784 32 2784 16
WIRE 2784 32 2656 32
WIRE 2928 32 2928 -144
WIRE 2928 32 2784 32
WIRE 3216 32 3216 -144
WIRE 3216 32 2928 32
WIRE 3504 32 3216 32
WIRE 3792 32 3792 -144
WIRE 3792 32 3504 32
WIRE 4080 32 4080 -144
WIRE 4080 32 3792 32
WIRE 4224 32 4224 16
WIRE 4224 32 4080 32
WIRE 4352 32 4352 -64
WIRE 4352 32 4224 32
WIRE 4496 32 4496 0
WIRE 4496 32 4352 32
WIRE 3504 112 3504 32
FLAG 1984 -1552 0
FLAG 1984 -1808 36V
FLAG 7472 -1072 350V
FLAG 7472 -704 0
FLAG 7056 -1024 350V
FLAG 2176 -1552 0
FLAG 6176 -432 0
FLAG 6448 -432 0
FLAG 6352 -768 Vfb
FLAG 6784 -1040 350V
FLAG 3104 -2976 16VFLY
FLAG 4320 -1504 0
FLAG 4128 -2128 DTC
FLAG 3504 -1968 DTC
FLAG 3296 -1744 0
FLAG 3296 -2384 Vref
FLAG 4512 -1680 Vref
FLAG 3936 -1920 0
FLAG 5216 -2032 494_OutA
FLAG 5216 -1888 494_OutB
FLAG 4320 -2304 16VFLY
FLAG 4080 -1872 Vfbfilt
FLAG 3760 -1840 Vref
FLAG 4128 -2064 FB
FLAG 3984 -1472 FB
FLAG 6624 -2048 CSENSE
FLAG 6304 -1824 0
FLAG 4112 -1744 IN2
FLAG 4112 -1680 Vref
FLAG 4112 -1616 Vref
FLAG 4768 -1744 0
FLAG 5024 -1632 0
FLAG 7312 -768 0
FLAG 7216 -768 0
FLAG 7136 -768 0
FLAG 7056 -768 0
FLAG 2816 -1312 0
FLAG 2896 -1456 Vover
FLAG 1360 -1264 0
FLAG 1360 -1664 Vref_fb
FLAG 1632 -1424 DTC_fb
FLAG 1120 -1264 0
FLAG 1024 -1360 Vover
FLAG 3760 -1488 0
FLAG 3040 -1312 0
FLAG 3120 -1456 Vunder
FLAG 928 -800 Vunder
FLAG 1136 -656 0
FLAG 1136 -1056 Vref_fb
FLAG 1280 -656 0
FLAG 1536 -656 0
FLAG 1760 -880 DTC_fb
FLAG 2288 -1552 0
FLAG 2400 -1552 0
FLAG 2928 -1616 36V
FLAG 1264 -2768 0
FLAG 1456 -2624 0
FLAG 1552 -1904 0
FLAG 1360 -2512 DTC_fb
FLAG 1776 -2064 Vref_fb
FLAG 1984 -2096 0
FLAG 1648 -2784 Vaux_fb
FLAG 1984 -2608 Vaux_fb
FLAG 2384 -2064 0
FLAG 2656 -2224 CS_fb
FLAG 2624 -2448 0
FLAG 3120 -2672 Vaux_fb
FLAG 3104 -2768 0
FLAG 2624 -2768 0
FLAG 2832 -2768 0
FLAG 2976 -2768 0
FLAG 1216 -2288 0
FLAG 1360 -2448 FB_fb
FLAG 944 -2432 16VFLY
FLAG 944 -2080 0
FLAG 1040 -2192 Vref_fb
FLAG 1040 -1904 0
FLAG 1232 -2048 FB_fb
FLAG 1376 -2128 CS_fb
FLAG 1152 -1840 Vref_fb
FLAG 1440 -1840 0
FLAG 2608 -2064 0
FLAG 3072 -2432 0
FLAG 2176 -2208 0
FLAG 1264 -2992 36V
FLAG 2864 -2448 0
FLAG 2960 -2320 Vref
FLAG 2960 -1920 0
FLAG 6096 -1824 0
FLAG 6224 -1824 0
FLAG 6560 -1824 0
FLAG 6480 -1824 0
FLAG 3728 -2992 16VFLY
FLAG 4016 -2656 CSENSE
FLAG 3552 -2192 IN2
FLAG 3664 -2096 0
FLAG 4016 -2304 0
FLAG 7248 -1728 0
FLAG 7248 -1920 CSENSE
FLAG 7088 -1984 16VFLY
FLAG 7088 -1728 0
FLAG 3264 -1648 Vfb
FLAG 3648 -1648 Vfbfilt
FLAG 3584 -1504 0
FLAG 3424 -1504 0
FLAG 3152 -2064 DTC
FLAG 2288 -320 16VFLY
FLAG 2112 -592 16VFLY
FLAG 1952 -448 494_OutB
FLAG 1952 -480 494_OutA
FLAG 1984 -400 0
FLAG 1984 -176 0
FLAG 2304 -224 0
FLAG 1984 -320 16VFLY
FLAG 4720 -320 16VFLY
FLAG 4896 -592 16VFLY
FLAG 5056 -480 494_OutB
FLAG 5056 -448 494_OutA
FLAG 5024 -400 0
FLAG 5024 -176 0
FLAG 4704 -224 0
FLAG 5024 -320 16VFLY
FLAG 3504 -800 36V
FLAG 3504 112 0
FLAG 4192 -2240 0
FLAG 7248 -80 0
FLAG 7248 -480 Vref
FLAG 7520 -240 DTC
FLAG 7008 -80 0
FLAG 6912 -176 Voverout
FLAG 6640 -432 0
FLAG 6720 -768 Voverout
SYMBOL voltage 1984 -1728 R0
WINDOW 123 0 0 Left 2
WINDOW 39 24 44 Left 2
SYMATTR SpiceLine Rser=0.007
SYMATTR InstName V1
SYMATTR Value 36
SYMBOL res 7456 -928 R0
SYMATTR InstName R39
SYMATTR Value 50
SYMATTR SpiceLine pwr=5000
SYMBOL polcap 2160 -1712 R0
SYMATTR InstName C25
SYMATTR Value 10m
SYMATTR SpiceLine V=50 Rser=0.005
SYMBOL ind2 5392 -848 R0
SYMATTR InstName L4
SYMATTR Value 12.5m
SYMATTR Type ind
SYMATTR SpiceLine Rser=1
SYMBOL diode 5840 -1024 R270
WINDOW 0 32 32 VTop 2
WINDOW 3 0 32 VBottom 2
SYMATTR InstName D12
SYMATTR Value MUR860
SYMBOL diode 5904 -880 R90
WINDOW 0 0 32 VBottom 2
WINDOW 3 32 32 VTop 2
SYMATTR InstName D13
SYMATTR Value MUR860
SYMBOL diode 5904 -704 R90
WINDOW 0 0 32 VBottom 2
WINDOW 3 32 32 VTop 2
SYMATTR InstName D14
SYMATTR Value MUR860
SYMBOL diode 5840 -480 R270
WINDOW 0 32 32 VTop 2
WINDOW 3 0 32 VBottom 2
SYMATTR InstName D15
SYMATTR Value MUR860
SYMBOL res 6432 -992 R0
SYMATTR InstName R22
SYMATTR Value 470k
SYMBOL res 6432 -608 R0
SYMATTR InstName R25
SYMATTR Value 3.3k
SYMBOL ValVol\\TL494 4320 -1872 R0
SYMATTR InstName U1
SYMBOL res 4096 -2016 R90
WINDOW 0 0 56 VBottom 2
WINDOW 3 32 56 VTop 2
SYMATTR InstName R1
SYMATTR Value 15k
SYMBOL cap 4160 -1952 R90
WINDOW 0 0 32 VBottom 2
WINDOW 3 32 32 VTop 2
SYMATTR InstName C3
SYMATTR Value 1n
SYMBOL res 3280 -2128 R0
SYMATTR InstName R2
SYMATTR Value 9k
SYMBOL res 3280 -1936 R0
SYMATTR InstName R3
SYMATTR Value 1k
SYMBOL res 3280 -2288 R0
SYMATTR InstName R4
SYMATTR Value 6.8k
SYMBOL res 3936 -1680 R90
WINDOW 0 0 56 VBottom 2
WINDOW 3 32 56 VTop 2
SYMATTR InstName R9
SYMATTR Value 330
SYMBOL res 3968 -1616 R0
SYMATTR InstName R10
SYMATTR Value 300k
SYMBOL ind2 5712 -1856 R180
WINDOW 0 36 80 Left 2
WINDOW 3 36 40 Left 2
SYMATTR InstName L2
SYMATTR Value 12m
SYMATTR Type ind
SYMBOL schottky 5984 -2032 R270
WINDOW 0 32 32 VTop 2
WINDOW 3 0 32 VBottom 2
SYMATTR InstName D1
SYMATTR Value 1N5819
SYMATTR Description Diode
SYMATTR Type diode
SYMBOL schottky 6048 -1968 R90
WINDOW 0 0 32 VBottom 2
WINDOW 3 32 32 VTop 2
SYMATTR InstName D2
SYMATTR Value 1N5819
SYMATTR Description Diode
SYMATTR Type diode
SYMBOL schottky 6048 -1888 R90
WINDOW 0 0 32 VBottom 2
WINDOW 3 32 32 VTop 2
SYMATTR InstName D3
SYMATTR Value 1N5819
SYMATTR Description Diode
SYMATTR Type diode
SYMBOL schottky 5984 -1760 R270
WINDOW 0 32 32 VTop 2
WINDOW 3 0 32 VBottom 2
SYMATTR InstName D4
SYMATTR Value 1N5819
SYMATTR Description Diode
SYMATTR Type diode
SYMBOL ind2 5664 -992 R90
WINDOW 0 4 56 VBottom 2
WINDOW 3 32 56 VTop 2
SYMATTR InstName L1
SYMATTR Value 1.2µ
SYMATTR Type ind
SYMBOL res 5744 -1968 R0
SYMATTR InstName R14
SYMATTR Value 33
SYMBOL res 5840 -1968 R0
SYMATTR InstName R15
SYMATTR Value 33
SYMBOL cap 6208 -1984 R0
SYMATTR InstName C8
SYMATTR Value 100n
SYMBOL npn 4704 -2160 R0
SYMATTR InstName Q3
SYMATTR Value BC547C
SYMBOL pnp 4704 -1888 M180
SYMATTR InstName Q4
SYMATTR Value BC557C
SYMBOL npn 4960 -2016 R0
SYMATTR InstName Q5
SYMATTR Value BC547C
SYMBOL pnp 4960 -1744 M180
SYMATTR InstName Q6
SYMATTR Value BC557C
SYMBOL res 4672 -1904 R0
SYMATTR InstName R5
SYMATTR Value 1k
SYMBOL res 4928 -1776 R0
SYMATTR InstName R6
SYMATTR Value 1k
SYMBOL polcap 7296 -880 R0
SYMATTR InstName C9
SYMATTR Value 425µ
SYMATTR SpiceLine V=450 Rser=0.34
SYMBOL polcap 7200 -880 R0
SYMATTR InstName C10
SYMATTR Value 405µ
SYMATTR SpiceLine V=450 Rser=0.34
SYMBOL cap 7120 -880 R0
SYMATTR InstName C11
SYMATTR Value 470n
SYMATTR SpiceLine V=400
SYMBOL cap 7040 -880 R0
SYMATTR InstName C12
SYMATTR Value 470n
SYMATTR SpiceLine V=400
SYMBOL res 2800 -1584 R0
SYMATTR InstName R8
SYMATTR Value 100k
SYMBOL res 2800 -1440 R0
SYMATTR InstName R41
SYMATTR Value 5.1k
SYMBOL pnp 1296 -1456 M180
SYMATTR InstName Q7
SYMATTR Value BC557B
SYMBOL res 1344 -1408 R0
SYMATTR InstName R42
SYMATTR Value 10k
SYMBOL res 1296 -1632 R90
WINDOW 0 0 56 VBottom 2
WINDOW 3 32 56 VTop 2
SYMATTR InstName R43
SYMATTR Value 10k
SYMBOL diode 3376 -1952 R270
WINDOW 0 32 32 VTop 2
WINDOW 3 0 32 VBottom 2
SYMATTR InstName D6
SYMATTR Value 1N4148
SYMBOL diode 1488 -1408 R270
WINDOW 0 32 32 VTop 2
WINDOW 3 0 32 VBottom 2
SYMATTR InstName D17
SYMATTR Value 1N4148
SYMBOL EXTRA\\VolReg\\TL431 1104 -1392 R0
SYMATTR InstName U4
SYMBOL res 1280 -1520 R90
WINDOW 0 0 56 VBottom 2
WINDOW 3 32 56 VTop 2
SYMATTR InstName R44
SYMATTR Value 10k
SYMBOL res 3744 -1808 R0
SYMATTR InstName R45
SYMATTR Value 10k
SYMBOL res 3744 -1632 R0
SYMATTR InstName R46
SYMATTR Value 10k
SYMBOL res 3024 -1584 R0
SYMATTR InstName R47
SYMATTR Value 47k
SYMBOL res 3024 -1440 R0
SYMATTR InstName R48
SYMATTR Value 5.1k
SYMBOL EXTRA\\VolReg\\TL431 1120 -752 R0
WINDOW 3 57 35 Left 2
SYMATTR InstName U5
SYMBOL res 1120 -848 R0
SYMATTR InstName R51
SYMATTR Value 10k
SYMBOL res 1264 -768 R0
SYMATTR InstName R52
SYMATTR Value 10k
SYMBOL res 1120 -992 R0
SYMATTR InstName R53
SYMATTR Value 10k
SYMBOL pnp 1216 -816 M180
SYMATTR InstName Q8
SYMATTR Value BC557C
SYMBOL npn 1472 -848 R0
SYMATTR InstName Q9
SYMATTR Value BC547C
SYMBOL res 1520 -992 R0
SYMATTR InstName R54
SYMATTR Value 10k
SYMBOL res 1456 -816 R90
WINDOW 0 0 56 VBottom 2
WINDOW 3 32 56 VTop 2
SYMATTR InstName R55
SYMATTR Value 10k
SYMBOL res 1120 -816 R90
WINDOW 0 0 56 VBottom 2
WINDOW 3 32 56 VTop 2
SYMATTR InstName R56
SYMATTR Value 75k
SYMBOL diode 1616 -864 R270
WINDOW 0 32 32 VTop 2
WINDOW 3 0 32 VBottom 2
SYMATTR InstName D18
SYMATTR Value 1N4148
SYMBOL polcap 2272 -1712 R0
SYMATTR InstName C6
SYMATTR Value 10m
SYMATTR SpiceLine V=50 Rser=0.005
SYMBOL polcap 2384 -1712 R0
SYMATTR InstName C7
SYMATTR Value 10m
SYMATTR SpiceLine V=50 Rser=0.005
SYMBOL polcap 1248 -2896 R0
SYMATTR InstName C13
SYMATTR Value 470µ
SYMATTR SpiceLine V=50 Rser=0.4
SYMBOL ValVol\\TL494 1552 -2256 R0
SYMATTR InstName U6
SYMBOL res 1536 -2912 R0
SYMATTR InstName R49
SYMATTR Value 1k
SYMBOL polcap 1440 -2736 R0
SYMATTR InstName C14
SYMATTR Value 10µ
SYMATTR SpiceLine V=50 Rser=0.1
SYMBOL npn 1920 -2496 R0
SYMATTR InstName Q10
SYMATTR Value BC547C
SYMBOL pnp 1920 -2208 M180
SYMATTR InstName Q11
SYMATTR Value BC557C
SYMBOL res 1888 -2240 R0
SYMATTR InstName R50
SYMATTR Value 1k
SYMBOL res 2368 -2208 R0
SYMATTR InstName R57
SYMATTR Value 0.05
SYMBOL res 2128 -2352 R90
WINDOW 0 0 56 VBottom 2
WINDOW 3 32 56 VTop 2
SYMATTR InstName R58
SYMATTR Value 10
SYMBOL res 2240 -2336 R0
SYMATTR InstName R59
SYMATTR Value 1k
SYMBOL ind2 2368 -2912 R0
SYMATTR InstName L3
SYMATTR Value 10µ
SYMATTR Type ind
SYMBOL ind2 2640 -2800 R180
WINDOW 0 36 80 Left 2
WINDOW 3 36 40 Left 2
SYMATTR InstName L7
SYMATTR Value 95.4µ
SYMATTR Type ind
SYMBOL ind2 2640 -2528 R180
WINDOW 0 36 80 Left 2
WINDOW 3 36 40 Left 2
SYMATTR InstName L8
SYMATTR Value 55.7µ
SYMATTR Type ind
SYMBOL res 3024 -2688 R90
WINDOW 0 0 56 VBottom 2
WINDOW 3 32 56 VTop 2
SYMATTR InstName R60
SYMATTR Value 10
SYMBOL polcap 2816 -2880 R0
SYMATTR InstName C15
SYMATTR Value 470µ
SYMATTR SpiceLine V=25 Rser=0.1
SYMBOL polcap 2960 -2880 R0
SYMATTR InstName C16
SYMATTR Value 470µ
SYMATTR SpiceLine V=25 Rser=0.1
SYMBOL res 3088 -2896 R0
SYMATTR InstName R61
SYMATTR Value 1k
SYMBOL res 2208 -2928 R0
SYMATTR InstName R62
SYMATTR Value 1k
SYMBOL diode 2240 -2720 R180
WINDOW 0 24 64 Left 2
WINDOW 3 24 0 Left 2
SYMATTR InstName D19
SYMATTR Value RF101L4S
SYMBOL diode 2720 -2656 R270
WINDOW 0 32 32 VTop 2
WINDOW 3 0 32 VBottom 2
SYMATTR InstName D20
SYMATTR Value RF101L4S
SYMBOL res 1424 -2400 R90
WINDOW 0 0 56 VBottom 2
WINDOW 3 32 56 VTop 2
SYMATTR InstName R63
SYMATTR Value 25k
SYMBOL cap 1296 -2336 R90
WINDOW 0 0 32 VBottom 2
WINDOW 3 32 32 VTop 2
SYMATTR InstName C17
SYMATTR Value 1n
SYMBOL res 928 -2384 R0
SYMATTR InstName R64
SYMATTR Value 27k
SYMBOL res 928 -2224 R0
SYMATTR InstName R65
SYMATTR Value 5k1
SYMBOL res 1024 -2176 R0
SYMATTR InstName R66
SYMATTR Value 10k
SYMBOL res 1024 -2048 R0
SYMATTR InstName R67
SYMATTR Value 10k
SYMBOL res 1216 -2208 R90
WINDOW 0 0 56 VBottom 2
WINDOW 3 32 56 VTop 2
SYMATTR InstName R68
SYMATTR Value 1k
SYMBOL res 1216 -2176 R0
SYMATTR InstName R69
SYMATTR Value 100k
SYMBOL res 1168 -1824 R270
WINDOW 0 32 56 VTop 2
WINDOW 3 0 56 VBottom 2
SYMATTR InstName R70
SYMATTR Value 47k
SYMBOL res 1296 -1824 R270
WINDOW 0 32 56 VTop 2
WINDOW 3 0 56 VBottom 2
SYMATTR InstName R71
SYMATTR Value 1k
SYMBOL nmos 2336 -2416 R0
SYMATTR InstName M1
SYMATTR Value IRF1310
SYMBOL diode 2704 -2912 R270
WINDOW 0 32 32 VTop 2
WINDOW 3 0 32 VBottom 2
SYMATTR InstName D21
SYMATTR Value RF1001NS2D
SYMBOL cap 2592 -2176 R0
SYMATTR InstName C18
SYMATTR Value 1n
SYMBOL res 2544 -2240 R90
WINDOW 0 0 56 VBottom 2
WINDOW 3 32 56 VTop 2
SYMATTR InstName R72
SYMATTR Value 1k
SYMBOL zener 3088 -2576 R180
WINDOW 0 24 64 Left 2
WINDOW 3 24 0 Left 2
SYMATTR InstName D22
SYMATTR Value TDZ18B
SYMATTR Description Diode
SYMATTR Type diode
SYMBOL zener 3088 -2464 R180
WINDOW 0 24 64 Left 2
WINDOW 3 24 0 Left 2
SYMATTR InstName D23
SYMATTR Value TDZ18B
SYMATTR Description Diode
SYMATTR Type diode
SYMBOL zener 2192 -2240 R180
WINDOW 0 24 64 Left 2
WINDOW 3 24 0 Left 2
SYMATTR InstName D24
SYMATTR Value TDZ18B
SYMATTR Description Diode
SYMATTR Type diode
SYMBOL res 2848 -2624 R0
SYMATTR InstName R73
SYMATTR Value 1k
SYMBOL ind 2848 -2912 R270
WINDOW 0 32 56 VTop 2
WINDOW 3 5 56 VBottom 2
SYMATTR InstName L9
SYMATTR Value 20µ
SYMBOL res 2944 -2304 R0
SYMATTR InstName R74
SYMATTR Value 120k
SYMBOL polcap 2944 -2160 R0
SYMATTR InstName C2
SYMATTR Value 1µ
SYMATTR SpiceLine V=25
SYMBOL res 2944 -2064 R0
SYMATTR InstName R75
SYMATTR Value 150k
SYMBOL diode 3040 -2048 R270
WINDOW 0 32 32 VTop 2
WINDOW 3 0 32 VBottom 2
SYMATTR InstName D25
SYMATTR Value 1N4148
SYMBOL EXTRA\\Misc\\pot 6304 -1952 R0
SYMATTR InstName U7
SYMBOL zener 6576 -1904 R180
WINDOW 0 24 64 Left 2
WINDOW 3 -103 -13 Left 2
SYMATTR InstName D5
SYMATTR Value KDZ12B
SYMATTR Description Diode
SYMATTR Type diode
SYMBOL res 6464 -2064 R90
WINDOW 0 0 56 VBottom 2
WINDOW 3 32 56 VTop 2
SYMATTR InstName R11
SYMATTR Value 10k
SYMBOL res 6496 -1872 R180
WINDOW 0 36 76 Left 2
WINDOW 3 36 40 Left 2
SYMATTR InstName R12
SYMATTR Value 10k
SYMBOL res 3536 -2352 R0
SYMATTR InstName R7
SYMATTR Value 100k
SYMBOL npn 3616 -2528 M0
SYMATTR InstName Q1
SYMATTR Value BC547C
SYMBOL pnp 3664 -2608 M180
SYMATTR InstName Q2
SYMATTR Value BC557C
SYMBOL diode 3840 -2496 R90
WINDOW 0 0 32 VBottom 2
WINDOW 3 32 32 VTop 2
SYMATTR InstName D26
SYMATTR Value 1N4148
SYMBOL res 3536 -2848 R0
SYMATTR InstName R13
SYMATTR Value 100k
SYMBOL res 3648 -2224 R0
SYMATTR InstName R16
SYMATTR Value 100k
SYMBOL res 3712 -2416 R90
WINDOW 0 0 56 VBottom 2
WINDOW 3 32 56 VTop 2
SYMATTR InstName R37
SYMATTR Value 100k
SYMBOL res 4000 -2624 R0
SYMATTR InstName R38
SYMATTR Value 10k
SYMBOL res 4000 -2448 R0
SYMATTR InstName R40
SYMATTR Value 10k
SYMBOL nmos 7200 -1856 R0
SYMATTR InstName M10
SYMATTR Value IRFZ24
SYMBOL polcap 7072 -1952 R0
SYMATTR InstName C5
SYMATTR Value 10µ
SYMBOL res 7072 -1856 R0
SYMATTR InstName R76
SYMATTR Value 100k
SYMBOL res 3408 -1664 R90
WINDOW 0 0 56 VBottom 2
WINDOW 3 32 56 VTop 2
SYMATTR InstName R77
SYMATTR Value 10k
SYMBOL cap 3408 -1616 R0
SYMATTR InstName C21
SYMATTR Value 10n
SYMBOL res 3568 -1664 R90
WINDOW 0 0 56 VBottom 2
WINDOW 3 32 56 VTop 2
SYMATTR InstName R78
SYMATTR Value 1k
SYMBOL cap 3568 -1616 R0
SYMATTR InstName C22
SYMATTR Value 1n
SYMBOL EXTRA\\Misc\\pot 6448 -672 R0
SYMATTR InstName U9
SYMATTR Value R=1k
SYMATTR Value2 T=0.1
SYMBOL polcap 2352 -576 M0
WINDOW 3 17 59 Left 2
SYMATTR Value 100µ
SYMATTR InstName C1
SYMATTR SpiceLine V=25 Rser=0.1
SYMBOL diode 2160 -576 R270
WINDOW 0 32 32 VTop 2
WINDOW 3 0 32 VBottom 2
SYMATTR InstName D7
SYMATTR Value RFN1L7S
SYMBOL EXTRA\\IRF\\GATEDRV\\IR2110A 2128 -336 R0
SYMATTR InstName U2
SYMBOL EXTRA\\IRF\\NMOSFET\\irfp2907 2896 -192 R0
SYMATTR InstName U3
SYMBOL res 2768 -80 R0
SYMATTR InstName R17
SYMATTR Value {Rgs}
SYMBOL res 2496 -208 R90
WINDOW 0 0 56 VBottom 2
WINDOW 3 32 56 VTop 2
SYMATTR InstName R18
SYMATTR Value {Rg}
SYMBOL pnp 2592 -64 M180
SYMATTR InstName Q12
SYMATTR Value BD140
SYMBOL res 2496 -96 R0