Version 4
SHEET 1 1176 680
WIRE 336 -144 96 -144
WIRE 448 -144 336 -144
WIRE 688 -144 448 -144
WIRE 448 -96 448 -144
WIRE 688 -80 688 -144
WIRE 576 -48 512 -48
WIRE 336 0 336 -144
WIRE 448 48 448 0
WIRE 448 48 400 48
WIRE 576 48 576 -48
WIRE 688 48 688 0
WIRE 688 48 576 48
WIRE 736 48 688 48
WIRE 880 48 816 48
WIRE 96 80 96 -144
WIRE 336 144 336 96
WIRE 432 144 336 144
WIRE 560 144 512 144
WIRE 848 144 752 144
WIRE 1008 144 928 144
WIRE 1008 176 1008 144
WIRE 336 192 336 144
WIRE 560 240 480 240
WIRE 800 240 752 240
WIRE 800 288 800 240
WIRE 1008 288 1008 256
WIRE 336 304 336 272
WIRE 416 304 336 304
WIRE 480 304 480 240
WIRE 96 320 96 160
WIRE 336 336 336 304
WIRE 416 336 416 304
WIRE 448 336 416 336
WIRE 336 448 336 416
WIRE 480 448 480 368
FLAG 96 320 0
FLAG 880 48 0
FLAG 336 448 0
FLAG 480 448 0
FLAG 1008 288 0
FLAG 800 288 0
SYMBOL voltage 96 64 R0
WINDOW 123 0 0 Left 2
WINDOW 39 24 124 Left 2
SYMATTR InstName V1
SYMATTR Value 56
SYMATTR SpiceLine Rser=55
SYMBOL npn 400 0 M0
SYMATTR InstName Q1
SYMATTR Value BD139
SYMBOL res 672 -96 R0
SYMATTR InstName R2
SYMATTR Value 47k
SYMBOL res 720 64 R270
WINDOW 0 32 56 VTop 2
WINDOW 3 0 56 VBottom 2
SYMATTR InstName R3
SYMATTR Value 47k
SYMBOL EXTRA\\VolReg\\TL431 464 304 R0
SYMATTR InstName U1
SYMBOL res 320 176 R0
SYMATTR InstName R1
SYMATTR Value 100k
SYMBOL res 320 320 R0
SYMATTR InstName R4
SYMATTR Value 10k
SYMBOL res 528 128 R90
WINDOW 0 0 56 VBottom 2
WINDOW 3 32 56 VTop 2
SYMATTR InstName R5
SYMATTR Value 1k
SYMBOL npn 512 -96 M0
SYMATTR InstName Q2
SYMATTR Value BD139
SYMBOL Optos\\PC817C 656 192 R0
SYMATTR InstName U2
SYMBOL voltage 1008 160 R0
WINDOW 123 0 0 Left 2
WINDOW 39 24 124 Left 2
SYMATTR InstName V2
SYMATTR Value 5
SYMBOL res 944 128 R90
WINDOW 0 0 56 VBottom 2
WINDOW 3 32 56 VTop 2
SYMATTR InstName R6
SYMATTR Value 1k
TEXT 62 392 Left 2 !.tran 1 startup
